Git is a version control system.
Git is free software.
New line.
Origin add new line.
